Circuit: * C:\work\PCB Design\GradientAmplifierFilter_CascadeInductance\filter2.asc

.OP point found by inspection.

Date: Thu Oct 12 15:36:57 2023
Total elapsed time: 0.471 seconds.

tnom = 27
temp = 27
method = modified trap
totiter = 155238
traniter = 155238
tranpoints = 77620
accept = 49306
rejected = 28314
matrix size = 5
fillins = 0
solver = Normal
Matrix Compiler1: 204 bytes object code size  0.1/0.1/[0.1]
Matrix Compiler2:      28 opcodes  0.1/[0.1]/0.2

