Circuit: * C:\work\PCB Design\GradientAmplifierFilter_V1\Draft1.asc

WARNING: Node N001 is floating.


Date: Fri Oct 27 17:25:10 2023
Total elapsed time: 0.144 seconds.

tnom = 27
temp = 27
method = trap
totiter = 0
traniter = 0
tranpoints = 0
accept = 0
rejected = 0
matrix size = 11
fillins = 9
solver = Normal

