Circuit: * C:\work\PCB Design\GradientAmplifierFilter_CascadeInductance\filter (10).asc


Date: Thu Oct 12 15:35:44 2023
Total elapsed time: 0.048 seconds.

tnom = 27
temp = 27
method = trap
totiter = 0
traniter = 0
tranpoints = 0
accept = 0
rejected = 0
matrix size = 5
fillins = 0
solver = Normal

